  
       XFOIL         Version 6.99
  
 Calculated polar for: E387                                            
  
 1 1 Reynolds number fixed          Mach number fixed         
  
 xtrf =   1.000 (top)        1.000 (bottom)  
 Mach =   0.000     Re =     0.346 e 6     Ncrit =   9.000  9.000
  
   alpha    CL        CD       CDp       CM     Top_Xtr  Bot_Xtr  Top_Itr  Bot_Itr
  ------ -------- --------- --------- -------- -------- -------- -------- --------
   0.000   0.3984   0.00752   0.00131  -0.0807   0.6704   1.0000  24.4655 160.0000
   1.000   0.5080   0.00793   0.00138  -0.0803   0.6471   1.0000  26.0624 160.0000
   2.000   0.6180   0.00834   0.00157  -0.0800   0.6233   1.0000  27.6957 160.0000
   3.000   0.7274   0.00876   0.00173  -0.0795   0.5972   1.0000  29.4958 160.0000
   4.000   0.8358   0.00915   0.00180  -0.0789   0.5662   1.0000  31.6473 160.0000
   5.000   0.9426   0.00954   0.00180  -0.0780   0.5276   1.0000  34.3377 160.0000
   6.000   1.0432   0.01013   0.00158  -0.0760   0.4367   1.0000  40.7398 160.0000
   7.000   1.1168   0.01369   0.00273  -0.0711   0.1703   1.0000  59.8229 160.0000
   8.000   1.1746   0.01860   0.00494  -0.0642   0.0207   1.0000  72.7313 160.0000
   9.000   1.2276   0.02256   0.00708  -0.0562   0.0168   1.0000  73.4766 160.0000
  10.000   1.2487   0.02784   0.01024  -0.0457   0.0152   1.0000  73.8089 160.0000
